18
Properties=species:S:1:pos:R:3 energy=-10478070.659035627 pbc="F F F"
C       -1.07752258      -1.44519018       0.23486494
C       -2.34287934      -1.00436934      -0.03884263
C       -2.49625633       0.40527529      -0.23488609
C       -1.32251140       1.30701063      -0.23011205
C       -0.03972489       0.71954944      -0.09685793
C        1.16386179       1.56294692      -0.06105191
C        2.34152520       0.92675009       0.01612411
C        2.44515671      -0.58490551       0.10661457
C        1.31344319      -1.26692346       0.24849954
C        0.01904813      -0.61131099       0.05976149
H       -0.84295984      -2.42125368       0.67296941
H       -3.18464777      -1.71419493      -0.25475633
H       -3.55069635       0.69888542      -0.36353746
H       -1.62292307       2.33411368      -0.32316927
H        1.06380309       2.66106164      -0.12679498
H        3.21431354       1.51359069      -0.29721477
H        3.54308435      -0.81134785       0.12807956
H        1.33078774      -2.36610850       0.51600063
