18
Properties=species:S:1:pos:R:3:forces:R:3 energy=-10478070.659035627 pbc="F F F"
C       -1.07752258      -1.44519018       0.23486494    -215.39830245    -969.44325912     116.77620260
C       -2.34287934      -1.00436934      -0.03884263    -925.18643408     809.36863621    -681.12824069
C       -2.49625633       0.40527529      -0.23488609    1742.87428875     301.46482714    -161.40614626
C       -1.32251140       1.30701063      -0.23011205   -3567.76062541   -2974.97541634     125.78005465
C       -0.03972489       0.71954944      -0.09685793    -451.58963741    5429.00391571    -401.81059513
C        1.16386179       1.56294692      -0.06105191   -2125.64457299    -511.26722452    -122.14250809
C        2.34152520       0.92675009       0.01612411    1328.62829187   -2013.97556001   -1134.35757399
C        2.44515671      -0.58490551       0.10661457    2629.77497836    4561.19968991     -43.56128998
C        1.31344319      -1.26692346       0.24849954   -1232.67746627   -1890.03939833     313.34199079
C        0.01904813      -0.61131099       0.05976149    2444.94412035   -4061.38030608    1744.28464216
H       -0.84295984      -2.42125368       0.67296941    -245.20896812    -535.31800010    -487.86123040
H       -3.18464777      -1.71419493      -0.25475633     279.34695615     486.83448572     750.22583874
H       -3.55069635       0.69888542      -0.36353746     236.95310166     728.78936174    -164.85523090
H       -1.62292307       2.33411368      -0.32316927     558.32449607    1122.87234944     -71.86677993
H        1.06380309       2.66106164      -0.12679498      10.61634565    -182.47819498    -135.07248741
H        3.21431354       1.51359069      -0.29721477     567.66433999     -71.74084726     651.23128877
H        3.54308435      -0.81134785       0.12807956    -904.89420121   -1015.53631524     142.70079880
H        1.33078774      -2.36610850       0.51600063    -130.76665949     786.62130753    -440.27863087
